LAMMPS (10 Feb 2021)
# 3d Lennard-Jones
units		lj
atom_style	atomic
atom_modify	map array
boundary	p p p

lattice		fcc 0.05
Lattice spacing in x,y,z = 4.3088694 4.3088694 4.3088694
region		box block 0 8 0 8 0 8
create_box	1 box
Created orthogonal box = (0.0000000 0.0000000 0.0000000) to (34.470955 34.470955 34.470955)
create_atoms	1 box
Created 2048 atoms
mass		1 1.0

velocity	all create 2.4 87287 loop geom

pair_style	lj/cut 2.5
pair_coeff	1 1 1.0 1.0 2.5

timestep 0.005

variable tdamp equal 0.5
variable pdamp equal   1.0

variable dens equal density

fix		1 all npt temp 2.4 2.4 0.5 iso 3.0 3.0 1
thermo 1000

fix 2 all ave/time 100 5 1000 v_dens ave window 20 file isobars/rho-P3.0-T2.4.txt

timestep 0.01

dump MYDUMP all atom 2000 dump-T2.4-P-3.0.atom
dump_modify MYDUMP sort id

run		20000
  update every 1 steps, delay 10 steps, check yes
Step Temp E_pair E_mol TotEng Press Volume
0          2.4            0            0    3.5982422   0.11994141        40960
Averages over the last 11 of 21 rows, steps 10000 to 20000:
Temp E_pair E_mol TotEng Press Volume
2.42688 -3.26967 0 0.368883 3.03697 3392.35
Loop time of 6.96708 on 4 procs for 20000 steps with 2048 atoms
